power-flow-agent/results/ieee14/2026-09-18/gpt-5.4/react_nogate/traces/39_case14-plain-032-s0.transcript.txt
==============================================================================
TRANSCRIPT  react_nogate  |  openrouter:openai/gpt-5.4  |  case14  |  case14-plain-032-s0  run 0
==============================================================================
date: 2026-09-18   seed: 0   difficulty: plain   tool variant: load_split

[system]   (hash 7da5e2a37ec4, from methods/react_nogate/method.json prompt_files)
You are a power system power-flow analysis assistant. You help the user complete power system analysis tasks from natural-language requests.

## What you can do
You complete tasks by calling tool functions:
1. Load an IEEE standard test system (14, 30, 57, 118, 300 buses)
2. Run AC power flow
3. Modify the load at a bus and re-solve
4. Disconnect or reconnect a line and re-solve
5. Query the network status
6. Run an N-1 contingency analysis (disconnect branches one at a time and rank the worst cases)
7. Generate remedial-action suggestions (what-if load shedding or voltage adjustment) to reduce violation risk

## Key rules
- Never fabricate any numerical result. Every voltage, power, loss, or loading value must come from a tool return value.
- If a tool reports an error or a non-converged power flow, say so explicitly and do not report numbers for that state.
- If the request is ambiguous, state the interpretation you are using.
- Bus and line identifiers in the request are MATPOWER 1-based ids; pass them to the tools as given, unless the request itself states a different indexing convention for that identifier (e.g. "(0-based)"), in which case convert it to the MATPOWER 1-based id before calling any tool.
- After a network modification, re-solve before reporting any value.
- Always reply in English.

## Reply format
After each analysis, reply in this structure:
1. One-sentence summary
2. Key numbers (total load, total generation, total losses, voltage range) taken from the tool outputs
3. Violations, if any
4. Suggested next step

[user]
Load the 14-bus test case (case14).

--- round 1 ---
[assistant]   (923 in / 20 out tokens, 1.2 s)
(no text)
tool_call  load_case(case_name="case14")
[tool load_case]   (gate: not applied)
{"case_name": "case14", "n_buses": 14, "n_generators": 5, "n_lines": 20, "n_loads": 11, "total_load_mw": 257.41794365341525, "total_gen_capacity_mw": 772.4000000000001}

--- round 2 ---
[assistant]   (1024 in / 15 out tokens, 1.4 s)
(no text)
tool_call  run_powerflow()
[tool run_powerflow]   (gate: pass)
{"case_name": "case14", "converged": true, "bus_voltages": [{"bus_id": 1, "vm_pu": 1.06, "va_deg": 0.0, "is_violation": true, "violation_type": "overvoltage"}, {"bus_id": 2, "vm_pu": 1.0449999999999997, "va_deg": -4.848714928598216, "is_violation": false, "violation_type": null}, {"bus_id": 3, "vm_pu": 1.0099999999999998, "va_deg": -12.479690094070786, "is_violation": false, "violation_type": null}, {"bus_id": 4, "vm_pu": 1.0173433235642255, "va_deg": -10.282258072036472, "is_violation": false, "violation_type": null}, {"bus_id": 5, "vm_pu": 1.0193466050169537, "va_deg": -8.723043142669306, "is_violation": false, "violation_type": null}, {"bus_id": 6, "vm_pu": 1.07, "va_deg": -14.12260959543763, "is_violation": true, "violation_type": "overvoltage"}, {"bus_id": 7, "vm_pu": 1.0615425553665583, "va_deg": -13.292339217474389, "is_violation": true, "violation_type": "overvoltage"}, {"bus_id": 8, "vm_pu": 1.0900000000000003, "va_deg": -13.292339217474384, "is_violation": true, "violation_type": "overvoltage"}, {"bus_id": 9, "vm_pu": 1.0561287670167638, "va_deg": -14.851462348512266, "is_violation": true, "violation_type": "overvoltage"}, {"bus_id": 10, "vm_pu": 1.0510412895203725, "va_deg": -15.01219422525856, "is_violation": true, "violation_type": "overvoltage"}, {"bus_id": 11, "vm_pu": 1.0570145710148018, "va_deg": -14.69552909193653, "is_violation": true, "violation_type": "overvoltage"}, {"bus_id": 12, "vm_pu": 1.0549503833663103, "va_deg": -14.993843108893923, "is_violation": true, "violation_type": "overvoltage"}, {"bus_id": 13, "vm_pu": 1.0498269002350336, "va_deg": -15.085027005808042, "is_violation": false, "violation_type": null}, {"bus_id": 14, "vm_pu": 1.0348119268318126, "va_deg": -15.986095095841721, "is_violation": false, "violation_type": null}], "line_flows": [{"line_id": 0, "from_bus": 1, "to_bus": 2, "p_from_mw": 152.83617106737822, "q_from_mvar": -19.45368418930849, "loading_percent": 1.4681653652509608, "is_violation": false}, {"line_id": 1, "from_bus": 1, "to_bus": 5, "p_from_mw": 75.10087383041795, "q_from_mvar": 3.9674068998619667, "loading_percent": 0.7173789624230603, "is_violation": false}, {"line_id": 2, "from_bus": 2, "to_bus": 3, "p_from_mw": 72.2327307722692, "q_from_mvar": 3.659895107039387, "loading_percent": 0.6998982642205251, "is_violation": false}, {"line_id": 3, "from_bus": 2, "to_bus": 4, "p_from_mw": 57.17857513005436, "q_from_mvar": -1.60026534004484, "loading_percent": 0.5529067147984834, "is_violation": false}, {"line_id": 4, "from_bus": 2, "to_bus": 5, "p_from_mw": 42.35773340216267, "q_from_mvar": 1.0550451194870847, "loading_percent": 0.41083737704214135, "is_violation": false}, {"line_id": 5, "from_bus": 3, "to_bus": 4, "p_from_mw": -21.293064600728624, "q_from_mvar": 3.7950835456189873, "loading_percent": 0.2187416088527746, "is_violation": false}, {"line_id": 6, "from_bus": 4, "to_bus": 5, "p_from_mw": -62.02090802908181, "q_from_mvar": 15.734357653048045, "loading_percent": 0.6353014301004372, "is_violation": false}, {"line_id": 7, "from_bus": 6, "to_bus": 11, "p_from_mw": 7.357485121072331, "q_from_mvar": 3.5006595750539846, "loading_percent": 0.07691715624059163, "is_violation": false}, {"line_id": 8, "from_bus": 6, "to_bus": 12, "p_from_mw": 7.928323066756948, "q_from_mvar": 2.536603399992848, "loading_percent": 0.07858228540273605, "is_violation": false}, {"line_id": 9, "from_bus": 6, "to_bus": 13, "p_from_mw": 18.252783726029918, "q_from_mvar": 7.422636687442299, "loading_percent": 0.18601251152039114, "is_violation": false}, {"line_id": 10, "from_bus": 9, "to_bus": 10, "p_from_mw": 5.32604815468894, "q_from_mvar": 4.358796735545416, "loading_percent": 0.06582347719166123, "is_violation": false}, {"line_id": 11, "from_bus": 9, "to_bus": 14, "p_from_mw": 9.791672734170964, "q_from_mvar": 3.8025821911608984, "loading_percent": 0.10046331578940401, "is_violation": false}, {"line_id": 12, "from_bus": 10, "to_bus": 11, "p_from_mw": -3.8811150515829484, "q_from_mvar": -1.6018861927250758, "loading_percent": 0.04035153104008278, "is_violation": false}, {"line_id": 13, "from_bus": 12, "to_bus": 13, "p_from_mw": 1.7425970764624332, "q_from_mvar": 0.7788060623372717, "loading_percent": 0.018275669328207678, "is_violation": false}, {"line_id": 14, "from_bus": 13, "to_bus": 14, "p_from_mw": 5.762476444849447, "q_from_mvar": 1.7377344631311114, "loading_percent": 0.057910382831240996, "is_violation": false}, {"line_id": 100000, "from_bus": 4, "to_bus": 7, "p_from_mw": 27.728495072736575, "q_from_mvar": -9.873817125754904, "loading_percent": 0.29224486529099286, "is_violation": false}, {"line_id": 100001, "from_bus": 4, "to_bus": 9, "p_from_mw": 15.881911864062385, "q_from_mvar": -0.5440879887548261, "loading_percent": 0.1577810164929493, "is_violation": false}, {"line_id": 100002, "from_bus": 5, "to_bus": 6, "p_from_mw": 43.696631834293214, "q_from_mvar": 12.35434773722175, "loading_percent": 0.4499766154744289, "is_violation": false}, {"line_id": 100003, "from_bus": 7, "to_bus": 8, "p_from_mw": -6.155990308308965e-14, "q_from_mvar": -17.14946834821829, "loading_percent": 0.16318418148812647, "is_violation": false}, {"line_id": 100004, "from_bus": 7, "to_bus": 9, "p_from_mw": 27.72849507235688, "q_from_mvar": 5.601335144280444, "loading_percent": 0.2691774761358606, "is_violation": false}], "total_generation_mw": 270.57706919712757, "total_load_mw": 257.41794365341525, "total_loss_mw": 13.159125549686635, "voltage_violations": [{"bus_id": 1, "vm_pu": 1.06, "va_deg": 0.0, "is_violation": true, "violation_type": "overvoltage"}, {"bus_id": 6, "vm_pu": 1.07, "va_deg": -14.12260959543763, "is_violation": true, "violation_type": "overvoltage"}, {"bus_id": 7, "vm_pu": 1.0615425553665583, "va_deg": -13.292339217474389, "is_violation": true, "violation_type": "overvoltage"}, {"bus_id": 8, "vm_pu": 1.0900000000000003, "va_deg": -13.292339217474384, "is_violation": true, "violation_type": "overvoltage"}, {"bus_id": 9, "vm_pu": 1.0561287670167638, "va_deg": -14.851462348512266, "is_violation": true, "violation_type": "overvoltage"}, {"bus_id": 10, "vm_pu": 1.0510412895203725, "va_deg": -15.01219422525856, "is_violation": true, "violation_type": "overvoltage"}, {"bus_id": 11, "vm_pu": 1.0570145710148018, "va_deg": -14.69552909193653, "is_violation": true, "violation_type": "overvoltage"}, {"bus_id": 12, "vm_pu": 1.0549503833663103, "va_deg": -14.993843108893923, "is_violation": true, "violation_type": "overvoltage"}], "thermal_violations": [], "summary_text": "", "solver_backend": "pandapower", "llm_prompt": null, "llm_response": null}

--- round 3 ---
[assistant]   (3722 in / 164 out tokens, 2.0 s)
1. One-sentence summary: The IEEE 14-bus test case was loaded successfully and the AC power flow converged.

2. Key numbers:
- Total load: 257.418 MW
- Total generation: 270.577 MW
- Total losses: 13.159 MW
- Voltage range: 1.010 pu to 1.090 pu

3. Violations, if any:
- Voltage violations: overvoltage at buses 1, 6, 7, 8, 9, 10, 11, and 12
- Thermal violations: none

4. Suggested next step:
- I can now check the most heavily loaded branch, run an N-1 contingency analysis, or suggest remedial actions for the voltage violations.

[final answer]
1. One-sentence summary: The IEEE 14-bus test case was loaded successfully and the AC power flow converged.

2. Key numbers:
- Total load: 257.418 MW
- Total generation: 270.577 MW
- Total losses: 13.159 MW
- Voltage range: 1.010 pu to 1.090 pu

3. Violations, if any:
- Voltage violations: overvoltage at buses 1, 6, 7, 8, 9, 10, 11, and 12
- Thermal violations: none

4. Suggested next step:
- I can now check the most heavily loaded branch, run an N-1 contingency analysis, or suggest remedial actions for the voltage violations.
